*LTspice
*
*MAX44285T
*Dual-Channel, High-Precision, High-Voltage, Current-Sense Amplifier
*AE01001282
*
*netlist
.include MAX44285T.cir
*
*params
.param LOAD1=2.5
.param LOAD2=2.5
.param VSOURCE=76
.param VSUPPLY=5
.param RSNS1=0.05
.param RSNS2=0.05
.param RLPF1=100
.param RLPF2=100
*
*load regulation
.dc I1 0 {LOAD1} 0.5 I2 {LOAD2} 0 0.5
*
.backanno
.op
